pst_legacy/pstdat/d3asbep.m
% Two Area Test Case
% sub transient generators with static exciters, turbine/governors
% 50% constant current active loads
% load modulation

disp('Two-area test case with subtransient generator models')
disp('Static exciters')
disp('power system stabilizers')
% bus data format
% bus: 
% col1 number
% col2 voltage magnitude(pu)
% col3 voltage angle(degree)
% col4 p_gen(pu)
% col5 q_gen(pu),
% col6 p_load(pu)
% col7 q_load(pu)
% col8 G shunt(pu)
% col9 B shunt(pu)
% col10 bus_type
%       bus_type - 1, swing bus
%               - 2, generator bus (PV bus)
%               - 3, load bus (PQ bus)
% col11 q_gen_max(pu)
% col12 q_gen_min(pu)
% col13 v_rated (kV)
% col14 v_max  pu
% col15 v_min  pu

bus = [... 
1  1.03    18.5   7.00   1.61  0.00  0.00  0.00  0.00  1  99.0  -99.0 22.0  1.1  .9;
2  1.01    8.80   7.00   1.76  0.00  0.00  0.00  0.00  2  99.0  -99.0 22.0  1.1  .9;
3  0.9781  -6.1   0.00   0.00  0.00  0.00  0.00  0.00  3  0.0   0.0  500.0  1.5  .5;
4  0.95    -10    0.00   0.00  10.0  1.00  0.00  0.00  3  0.0   0.0  115.0  1.05 .95;
10 1.0103  12.1   0.00   0.00  0.00  0.00  0.00  0.00  3  0.0   0.0  230.0  1.5  .5;
11 1.03    -6.8   7.00   1.49  0.00  0.00  0.00  0.00  2  99.0  -99.0 22.0  1.1  .9;
12 1.01    -16.9  7.50   1.39  0.00  0.00  0.00  0.00  2  99.0  -99.0 22.0  1.1  .9;
13 0.9899  -31.8  0.00   0.00  0.00  0.00  0.00  0.00  3  0.0   0.0  500.0  1.5  .5;
14 0.95    -38    0.00   0.00  15.0  1.00  0.00  0.00  3  0.0   0.0  115.0  1.05 .95; 
20 0.9876    2.1  0.00   0.00  0.00  0.00  0.00  0.00  3  0.0   0.0  230.0  1.5  .5;
21 1.0       0    0.00   0.00  5.0   2.0   0.00  0.0   3  0.00  0.00 115.0  1.5  .5;
22 1.0       0    1.50   1.5   0.00  0.00  0.00  0.00  2  99.0  -99.0 18.0  1.1  .9;
24 1.0       0    0      0     0     0     0     0     3  0     0    500.0  1.5  .5;
25 1.0       0    0      0     0     0     0     0     2  0     0    500.0  1.5  .5;
26 1.0       0    0      0     0     0     0     0     3  0     0    115.0  1.5  .5;
101 1.05    -19.3  0.00   8.00  0.00  0.00  0.00  0.00 2  99.0  -99. 500.0  1.5  .5;
110 1.0125  -13.4  0.00   0.00  0.00  0.00  0.00  0.00 3  0.0   0.0  230.0  1.5  .5;
120 0.9938  -23.6  0.00   0.00  0.00  0.00  0.00  0.00 3  0.0   0.0  230.0  1.5  .5 ];


% line data format
% line: from bus, to bus, resistance(pu), reactance(pu),
%       line charging(pu), tap ratio, tap phase, tapmax, tapmin, tapsize

line = [...
1   10  0.0     0.0167   0.00    1.0  0. 0.  0.  0.;
2   20  0.0     0.0167   0.00    1.0  0. 0.  0.  0.;
3    4  0.0     0.005     0.00   1.0  0. 1.2 0.8 0.05;
3   20  0.001   0.0100   0.0175  1.0  0. 0.  0.  0.;
3   101 0.011   0.110    0.1925  1.0  0. 0.  0.  0.;
3   101 0.011   0.110    0.1925  1.0  0. 0.  0.  0.;
3   25  0.011   0.110    0.1925  1.0  0  0   0   0 ;
13  24  0.019   0.19     0.3     1.0  0  0   0   0 ;
22  26  0.0     0.05     0.0     1.0  0  0   0   0 ;
24  21  0.0     0.01     0.0     1.0  0  0   0   0 ;
25  21  0.0     0.01     0.0     1.0  0  0   0   0 ;
26  21  0.02    0.2      0.375   1.0  0  0   0   0 ;
10  20  0.0025  0.025    0.0437  1.0  0. 0.  0.  0.;
11  110 0.0     0.0167   0.0     1.0  0. 0.  0.  0.;
12  120 0.0     0.0167   0.0     1.0  0. 0.  0.  0.;
13   14 0.0     0.005    0.00    1.0  0. 1.2 0.8 0.05;
13  101 0.011   0.11     0.1925  1.0  0. 0.  0.  0.;
13  101 0.011   0.11     0.1925  1.0  0. 0.  0.  0.;
13  120 0.001   0.01     0.0175  1.0  0. 0.  0.  0.;
110 120 0.0025  0.025    0.0437  1.0  0. 0.  0.  0.];

lmon_con = [1:18]';
% Machine data format
% Machine data format
%       1. machine number,
%       2. bus number,
%       3. base mva,
%       4. leakage reactance x_l(pu),
%       5. resistance r_a(pu),
%       6. d-axis sychronous reactance x_d(pu),
%       7. d-axis transient reactance x'_d(pu),
%       8. d-axis subtransient reactance x"_d(pu),
%       9. d-axis open-circuit time constant T'_do(sec),
%      10. d-axis open-circuit subtransient time constant
%                T"_do(sec),
%      11. q-axis sychronous reactance x_q(pu),
%      12. q-axis transient reactance x'_q(pu),
%      13. q-axis subtransient reactance x"_q(pu),
%      14. q-axis open-circuit time constant T'_qo(sec),
%      15. q-axis open circuit subtransient time constant
%                T"_qo(sec),
%      16. inertia constant H(sec),
%      17. damping coefficient d_o(pu),
%      18. dampling coefficient d_1(pu),
%      19. bus number
%
% note: all the following machines use sub-transient model
mac_con = [ ...

1 1 1000 0.200  0.0025  1.8  0.30  0.25 8.00  0.03...
                       1.7   0.55  0.25 0.4   0.05...
                       6.5   13    0    1;
2 2 1000 0.200  0.0025  1.8  0.30  0.25 8.00  0.03...
                       1.7   0.55  0.25 0.4   0.05...
                       6.5   13    0    2;
3 11 1000 0.200  0.0025  1.8 0.30  0.25 8.00  0.03...
                       1.7   0.55  0.25 0.4   0.05...
                       6.5   13    0    11;
4 12 1000 0.200  0.0025  1.8 0.30  0.25 8.00  0.03...
                       1.7   0.55  0.25 0.4   0.05...
                       6.5   13    0    12;
5 22 300 0.200  0.0025 1.8   0.3   0.25 5.00 0.03...
                       1.7   0.55  0.25 0.4  0.05...
                       5.0   10.0  0    22];

exc_con = [...
0 1 0.05 200.0  0     0     0    5.0  -5.0...
    0    0      0     0     0    0    0      0      0    0   0;
0 2 0.05 200.0  0     0     0    5.0  -5.0...
    0    0      0     0     0    0    0      0      0    0   0;
0 3 0.05 200.0  0     0     0    5.0  -5.0...
    0    0      0     0     0    0    0      0      0    0   0;
0 4 0.05 200.0  0     0     0    5.0  -5.0...
    0    0      0     0     0    0    0      0      0    0   0;
0 5 0.02 50.0   0.02  0.1   0.5  5.0  -2.0...
    0    0      0     0     0    0    0      0      0    0   0];

pss_con = [...
1 1 300.0  20.0  0.06  0.04  0.08  0.04  0.2  -0.05;
1 2 300.0  20.0  0.06  0.04  0.08  0.04  0.2  -0.05;
1 3 300.0  20.0  0.06  0.04  0.08  0.04  0.2  -0.05;
1 4 300.0  20.0  0.06  0.04  0.08  0.04  0.2  -0.05;
1 5 100.0  20.0  0.06  0.04  0.08  0.04  0.05 -0.01];


% governor model
% tg_con matrix format
%column	       data			unit
%  1	turbine model number (=1)	
%  2	machine number	
%  3	speed set point   wf		pu
%  4	steady state gain 1/R		pu
%  5	maximum power order  Tmax	pu on generator base
%  6	servo time constant   Ts	sec
%  7	governor time constant  Tc	sec
%  8	transient gain time constant T3	sec
%  9	HP section time constant   T4	sec
% 10	reheater time constant    T5	sec

tg_con = [...
1  1  1  1.0  25.0  0.1  0.5 0.0 1.25 5.0;
1  2  1  1.0  25.0  0.1  0.5 0.0 1.25 5.0;
1  3  1  1.0  25.0  0.1  0.5 0.0 1.25 5.0;
1  4  1  1.0  25.0  0.1  0.5 0.0 1.25 5.0];
ind_con = [ ...
1  21  240.0 .001 .1 4 .015 .1  0.6 0 0 0 0 0 0.4];

mld_con = [ ...
1  21  .1  1  .7  5];

 
load_con = [21  0  0  0  0];

svc_con = [1  21 100  1  0  50  0.02];

sw_con = [...
0      0    0    0    0    0    0.01;%sets initial time step
0.1    25   3    0    0    0    0.005; %apply three phase fault at bus 25, on line 25-3
0.15   0    0    0    0    0    0.005; %clear fault at bus 25
0.20   0    0    0    0    0    0.005; %clear remote end
5.0    0    0    0    0    0    0.0 ]; % end simulation
